 &LAYERS_PARM01
 layers_name(1) ='RHO',
 layers_krho(1) = 41,
 layers_bounds(1:56,1)= 33.0  , 33.5  , 34.0  , 34.5  , 
                        35.0  , 35.25 , 35.5  , 35.75 , 
                        36.0  , 36.1  , 36.2  , 36.3  , 36.4  , 36.5  ,
                        36.55 , 36.6  , 36.65 , 36.7  , 36.75 , 36.8  , 36.85 ,
                        36.9  , 36.92 , 36.94 , 36.96 , 36.98 , 37.0  , 37.02 , 37.04 , 37.06 , 37.08, 37.1  , 37.12 , 37.14,
                        37.16 , 37.17 , 37.18 , 37.19 , 37.2  , 37.21 , 37.22 , 37.23 , 37.24 , 
                        37.25 , 37.3  , 37.35 ,                     
                        37.4  , 37.45 , 37.5  , 37.55  ,
                        37.6  , 37.7  , 37.8  , 37.9  , 38.0  , 38.1,
 &
